Android UI is threadsafe

A. True
B. False
B

Note: B or A (% cao B)
How many threads are there in AsyncTask in android?
A. Only One
B. Three
C. AsyncTask doesn't have tread
D. Two

NOTE: D
How to set data for a Gallery control?
A. Define in XML file
B. Use function setGalleryAdapter()
C. Use function addView()
D. b or c
E. None of above

b
How to set data for a ListView?
A. Define in XML file
B. Use function setListAdapter()
C. Use function addView()
D. b or c
E. None of above

Is color a new HTML5 element of input type?

A. No
B. Yes
b

Android: When will onUpgrade() be invoked?

A. Altering tables
B. Dropping tables
C. Create new tables
D. All of above
E. None of above
d

Parent class of Service?

A. ContextThemeWrapper
B. ContextWrapper
C. Object
D. Context
b

If the action is ACTION_CALL, what the data field would be?

A. URI with the number to call
B. URI of the document to be displayed for editing
C. None of above
a

What is the difference between the getSharedPreferences() and getPreferences() method?

A. The getSharedPreferences() method allows the data to be shared among all the activities in an application, whereas the getPreferences() method is accessible only to the activity the created it
B. Both methods allows the data to be shared among all the activities in an application
C. The getPreferences() method allows the data to be shared among all the activities in an application, whereas the getSharedPreferences() method is accessible only to the activity that created it
D. Both methods are accessible only to the activity that created it
a

What is the purpose of the ImageSwitcher?

A. The ImageSwitcher enables images to be displayed with animation
B. The ImageSwitcher enables images to be displayed with description
C. The ImageSwitcher enables images to be displayed with audio
D. The ImageSwitcher enables images to be displayed with title
a

In HTML5, Which element is draggable?

A. <canvas>
B. <video>
C. <audio>
D. <img>
E. None of above
F. All of above
f

Intent Object structure is made of Component name, Action, Category, Extras ....?

A. Data
B. Data and Protocol
C. Flags and Services
D. Data and Flags
E. Flags
d

Your Java source code is what is directly run on the Android device.

A. No
B. Yes
a

The R.java file is where you edit the resources for your project.

A. Yes
B. No
b

How to set position of a Toast?

A. Call .setPosition() method
B. Call .setLocation() method
C. Call .setSizeAndLocation() method
D. None of above
d
setGravity(int, int, int) method

What is contained within the Layout xml file?

A. The strings used in app
B. Orientations and layouts that specify what the display looks like
C. The permissions required by the app
D. The code which is compiled to run the app
b

What are location provider in Android?

A. GPS & Network
B. GPS & Wifi
C. 3G & Wifi
D. 3G & Network
a

What is dp unit?

A. The dp unit is density independent and 250dp is equivalent to one inch
B. The dp unit corresponds to an actual pixel on screen
C. The dp unti is density independent and 160dp is equivalent to one inch
D. The dp unti is density independent and 90dp is equivalent to one inch
c

In HTML5, which of the following statement you need to use to create a new web socket to communicate?

A. var Socket = new Websocket(url,[protocol]);
B. var Socket = new WebSocket( );
C. var Socket = new WebSocket(url,[protocol]);
D. var Socket = new Websocket(protocol);
c

IntentFilters are typically defined via

A. The AndroidManifest.xml file
B. By code
C. Both of above
c

Android: What is one difference between synchronous and asynchronous requests?

A. We can call the same asynchronous request many times in one method, but we cannot with the case of synchronous
B. Synchronous request doesn't need handler block (or call-back method) while asynchronous request needs
C. Synchronous request is faster than asynchronous request
b

Is it valid if we perform asynchronous operation in the onReceive() method?

A. No
B. Yes
A

Android: Services run without a dedicated GUI, so they don't execute in the main thread of the application's process.

A. True
B. False
b

In Android, which statement is NOT correct about AsyncTask?

A. The AsyncTask class defines an operation to be performed in the background
B. The AsyncTask class provides event handlers you can use to monitor progress and post the results on the GUI thread.
C. None of above.
D. All of above.
c

Android is based on Linux for the following reason

A. Security
B. Portability
C. Networking
D. All of above
d

Android: Which statement is not correct about Toasts?

A. Toasts are perfect for informing your users of event without forcing them to open an Activity
B. Toasts don't steal focus and are non-modal
C. Toasts provide an ideal mechanism for alerting users events occurring in background Services without interrupting foreground application.
D. All of above
E. None of above
e

Which is right code snipset to display Toast in Android?

A. Toast.makeText(getBaseContext(),"hello",Toast.LENGTH_SHORT).show();
B. Toast.makeText(app.getBaseContext(),"hello",Toast.LENGTH_SHORT).show();
C. Toast.makeText("hello").show();
D. Toast.makeText(getApplicationContext(),"hello",Toast.LENGTH_SHORT).show();
d

Which statements are correct about Category?

A. A string containing additional information about the kind of component (activity, service, or broadcast receiver) that should handle the intent
B. Android providers a set of predefined categories
C. You can define your own categories
D. All of above
E. None of above
d

Android: Is it possible to cancel an asynchronous request after it has been sent?

A. Yes, if it is not yet completed (success or fail)
B. No
C. None of above
a

A
The application must declare all its component in Manifest file?
A. True
B. False

D
Android: which attribute will be used in XML if the Java code needs a reference to View?
A. android: gravity
B. android: background
C. android: index
D. android: id

A
Android: Which Layout adds each child View in a straight line, either vertically or horizontally and allows you to specify a "weight" for each child View that controls the relative size of each within the available space?
A. LinearLayout
B. RelativeLayout
C. TableLayout
D. AbsoluteLayout

A
The px unit corresponds to an actual pixcel on screen?
A. True
B. False

C
Which method is NOT a method of activity class?
A. onCreate()
B. onStart()
C. onPlay()
D. onResume()
E. onDestroy()

C
Which is right xml-based way to load view layout
A. setContentView(new XmlLayout())
B. loadContentView(new LinearLayout())
C. setContentView(R.layout.some_layout)
D. loadContentView(R.layout.some_layout)

D
Name the three events you can override to save an activity's state
A. onStop(), onSaveInstanceState(), and onRetainNonConfigurationInstance()
B. onDestroy(), onSaveInstanceState(), and onRetainNonConfigurationInstance()
C. onResume(), onSaveInstanceState(), and onRetainNonConfigurationInstance()
D. onPause(), onSaveInstanceState(), and onRetainNonConfigurationInstance()

C
How do you specify the minimum version of Android required by your application?
A. You specify the minimum Android version required using the minNdkVersion attribute in the AndroidManifest.xml file
B. You specify the minimum Android version required using the minNumberVersion attribute in the AndroidManifest.xml file
C. You specify the minimum Android version required using the minSdkVersion attribute in the AndroidManifest.xml file
D. You specify the minimum Android version required using the minVersion attribute in the AndroidManifest.xml file

B
Android: Which class provides a general framework that allows you to save and retrieve persistent key-value pairs of primitive data types?
A. File
B. SharedPreference
C. SQLiteOpenHelper
D. BufferedWriter

B
There are five different methods to store persistent data. They are: Shared Preference, Internal Storage, External Storage, Network and ...?
A. Core Data
B. SQLite Database
C. Web Service

D
How do we get access to the preference
A. Via getPreference() method
B. Via getSharedPreference() method
C. Via getDefaultSharedPreference() method
D. All of above

B
Which Android File API to create a file?
A. openInputFile()
B. openFileOutPut()
C. getFile()

C
Which database is natively supported by android
A. MSSQL
B. MySQL
C. SQLite
D. Oracle

C
In Android, by default, SQLite database save data in
A. Memory
B. External Storage
C. Internal Storage
D. On the cloud

A
Android MapActivity is
A. Base class with code to manage the boring necessities of any activity that display a MapView
B. A View which display a Map (with data obtained from the Google Maps Service)
C. A class to manage paining and zooming of a map
D. An Overlay for drawing the user's current location (and accuracy) on the map, and/or a compass-rose inset.

A
Android: Is a dialog always created and displayed as a part of an Activity?
A. Yes
B. No

c
Which of the following(s) is/are the nicknames of version(s) of android?
1)cupcake
2) muffin
3)honeycomb
4)gingerbread

a. 1,2,3
b. 2,3,4
c. 1,3,4
d. 1,2,4

T
Does Android support the Bluetooth serial port profile?

b
Which company bought android?

a. Android inc.
b. Google
c. Nokia
d. Apple

a
Object in Android holds the contents of a message that is sent between modules

a. Intent
b. Content Provider
c. Activity
d. Service

a
What are the key components of Android Architecture?

a. Linux Kernel, Libraries, Android Framework, Android Applications.
b. Symbian Kernel, Libraries, Android Framework, Android Applications.
c. IOS Kernel, Libraries, Android Framework, Android Applications.
d. Windows Kernel, Libraries, Android Framework, Android Applications.

T
A project is compiled into a single .apk file.

c
Which is not a Android resource?

a. xml
b. menu
c. image
d. drawable

c
What is Android?

a. Desktop Operating System
b. Distributed Database
c. Mobile Operating System
d. Programming Language

c
What does the time often denote in Android product shots?

Select one:
a. The build number
b. The release date
c. The Android version number
d. Nothing

b
What version of Android never came to phones?

Select one:
a. Froyo
b. Honeycomb
c. Gingerbread
d. Eclair

b
Which chat protocol that Android 1.0 didn't support?

Select one:
a. Yahoo! Messenger
b. Paltalk
c. Windows Live Messenger
d. Google Talk

b
How many way to share data across Android applications?

Select one:
a. Does not share data across Android applications
b. Only one way to access data via Content Provider
c. 3, Shared Preferences - File - SQLite
d. 2, Local data and Network data

b
Before Google and Nestle teamed up to call Android 4.4 "KitKat," what was it referred to as internally?

Select one:
a. Kandy Korn
b. Key Lime Pie
c. Kaiser roll
d. Kiwi

b
What is not Components of a Screen?

Select one:
a. Fragment
b. Activity
c. Layout
d. View

b
Android uses:

Select one:
a. Java Virtual Machine.
b. Dalvik Virtual Machine.
c. Windows Virtual Machine.
d. Oracle Virtual Machine.

T
Can an application be started on power up?

a
What is an Activity?

Select one:
a. A single screen in an application, with supporting Java code.
b. A multiple screen in an application, with supporting Java code.
c. A single screen in an application, with supporting C++ code.
d. A multiple screen in an application, with supporting C++ code.

b
Which company developed Android?

Select one:
a. Google
b. Android inc.
c. Nokia
d. Apple

a
What does AOSP stand for?

Select one:
a. Android Open Source Project
b. Android Open System Plan
c. Android Open Stack Programming
d. Android Operating System Project

F
Android application can only be programmed in Java?

b
What year was Android founded?

a. 2005
b. 2003
c. 2001
d. 2008

a
Before its release, what device was known as the "Nexus Prime"?

a. Galaxy Nexus
b. Nexus S
c. Nexus 10
d. Nexus 4

b
What is the "brand" of the clock widget in Android 1.0?

a. MIMO
b. Malmo
c. Clock
d. Google Clock

d
What version of Android is codenamed "Jelly Bean"?

a. Android 4.1
b. Android 4.2
c. Android 4.3
d. All Of Above

c
Who developed the Android 2.1 gallery?

a. Google
b. The Astonishing Tribe
c. Cooliris
d. ATAP

b
What's the acronym for Android's future (post-Dalvik) runtime?

a. Droid Run
b. ART
c. AR
d. DART

a
What was the first Android version to ship with Google Now?

a. 4.1
b. 3.0
c. 4.2
d. 4.3

c
What was the first Android version to have turn-by-turn GPS navigation?

a. Froyo
b. Gingerbread
c. Eclair
d. Ice Cream Sandwich

c
What was Android's first packed-in music store?

a. Napster
b. Google Music
c. MP3.com
d. Amazon MP3

e
What chat protocols did Android 1.0 support?

a. AIM
b. Google Talk
c. Windows Live
d. Yahoo Messenger
e. All Of Above

a
What company built the first Nexus device?

a. HTC
b. Google
c. Motorola
d. Foxconn

b
What movie inspired the design of Honeycomb?

a. Star Trek
b. Tron
c. The Matrix
d. Minority Report

a
Where did Andy Rubin work before founding Android Inc?

a. Apple
b. Microsoft
c. Danger Inc.
d. All Of Above

b
What was the first version to be updated with multitouch gestures like pinch zoom?

a. 4.0
b. 2.1
c. 2.3
d. 2.0

a
What is the name of Google's efforts to make Android run at 60FPS?

a. Project Butter
b. Project Roadrunner
c. Project Speedy
d. Project Swift

b
Who made the first Nexus tablet?

a. HTC
b. ASUS
c. Google
d. Samsung

b
What year was the first Google I/O held?

a. 1998
b. 2008
c. 2005
d. 2003

a
What method is used to send a broadcast event?

Select one:
a. sendBroadcast(intent);
b. startBroadcast(intent);
c. registerBroadcast(intent);
d. sendBroadcastReceiver(intent);

b
What class do you have to inherit from to be a broadcast receiver?

Select one:
a. Broadcast
b. BroadcastReceiver
c. AbstractBroadcast
d. Broadcaster

a
What are the inputs to the onReceive() method of a broadcast receiver?

Select one:
a. Context, Intent
b. Activity, Intent
c. Context, Bundle
d. Context, Activity

T
To register a broadcast receiver use AndroidManifestxml file

d
What is broadcast receiver?

Select one:
a. Intercept the events from a user's interaction with your application
b. The interactive components in your app's user interface
c. Represents a behavior or a portion of user interface in an activity
d. A component that does nothing but receive and react to broadcast announcements

a
Represents a behavior or a portion of user interface in an activity
Select one:
a. Fragment
b. Activity
c. Layout
d. View

b
A component that does nothing but receive and react to broadcast announcements
Select one:
a. Broadcast
b. BroadcastReceiver
c. AbstractBroadcast
d. Broadcaster

a
Intercept the events from a user's interaction with your application is ____
a. Input Events
b. Input controls
c. Broadcast
d. BroadcastReceiver

b
__________ are the interactive components in your app's user interface
a. Input Events
b. Input controls
c. Broadcast
d. BroadcastReceiver

b
What is a Fragment?

Select one:
a. A fragment is a part or portion of an activity
b. All of these
c. A fragment is modular in a sense that you can move around or combine with other fragments in a single activity
d. Fragments are also reusable

d
If the user leaves a task for long time

Select one:
a. System clears an activity and retain state of all other activities
b. System is independent of activities
c. System will retain the tasks state until closed explicitly
d. System will clear task of activities except root activity

a
What is not a service?

Select one:
a. Intercept the events from a user's interaction with your application
b. Like an activity, it has lifecycle methods that you can implement to monitor changes in its state.
c. It is a program that can run in the background for an indefinite period
d. Service is another building block of android application it does not provide a UI

d
How do you declare 4 components (Activity, Service, BroadcastReceiver, ContentProvider) of android in mainfestfile?

Select one:
a. <activity>, <service>, <receiver>, <content>
b. <activity>, <service>, <broadcastreceiver>, <contentprovider>
c. <activity>, <service>, <broadcast>, <provider>
d. <activity>, <service>, <receiver>, <provider>

c
In Android, the___ method of ___ class to return the full path to external storage.

Select one:
a. getExternalStorage(), Context
b. getExternalStorageDirectory(), File
c. getExternalStorageDirectory(), Environment
d. getExternalStorage(), System

e
what is fundamental building blocks / components of Android ?

a. Activities
b. Services
c. Broadcast Receivers
d. Content Providers.
e. all

e
what is Activtiy?
a. Activity is the basic building block of every visible android application .
b. Its provides the means to render a UI .
c. Every screen in an application is an activity by itself .
d. Though they work together to present an application sequence , each activity is an independent entity .
e. All of these

c
Which one is not belong to service?
a. Service is another building block of android application it does not provide a UI.
b. Service is a program that can run in the background for an indefinite period
c. Service is a another type of component that can receive and respond to any broadcast announcement..

T
Content Provider's are the only way to share data across Android applications. They store and retrieve data thus making it accessible to all. Android platform provides default implementations of content providers for data types like audio, video, images, contact information etc..

T
Intents are messages that are passed between components. Intent is a bundle of information, a passive data structure that holds an abstract description of the operation to be performed

c
Types of intent?

a. Explicit Intent
b. Implicit Intent
c. all

a
_________is a block of resources, srbitrary information. It can be any file type.
a. File
b. Class
c. Activity
d. Fragment

c
________is the equivalent of a Frame/Window in GUI toolkits. It is not a file or a file type it is just a class that can be extended in Android for loading UI elements on view.
a. File
b. Class
c. Activity
d. Fragment

b
________ is complied from .java file. Android will use this .class file to produce the executable apk.
a. File
b. Class
c. Activity
d. Fragment

a
_________, you actually specify the activity that is required to respond to the intents.
a. Explicit Intent
b. Implicit Intent

b
................., you just declare an intent and leave it to the platform to find an activity that can respond to the intent.
a. Explicit Intent
b. Implicit Intent

c
Pending Intents can be created of three types except:
a. getActivity(Context, int, Intent, int);
b. getBroadcast(Context, int, Intent, int);
c. getPendingIntent(Context, int, Intent, int);
d .getService(Context, int, Intent, int);

b
_________________ are used to register activity, services, broadcast receiver as being capable of performing an action on a particular kind of actions.
a. register
b. Intents filter
c. Intents

f
which ways data stored in android?
a. Shared preferences
b. Internal storage
c. External storage
d. Sqlite database
e. Network connetion
f. All of these

a
User interface types?
a. Views, Notifications.
b. Activity, Views.
c. Activity, Notifications.
d. Views, Fragment.

a b c
Types of notifications in android?
a. Toast notification
b. Status bar notification
c. Dialog notification.

b
How do you find any view element into your program?
a. Findviewbyname
b. Findviewbyid
c. Findviewbyclass
d. Findviewbyelement

a
What is a resource?
a. A user defined JSON, XML, bitmap, or other file, injected into the application build process, which can later be loaded from code.
b. A user defined JSON, XML, bitmap, or other file, injected into the application build process, which can't later be loaded from code.

T
AAPT is short for Android Asset Packaging Tool

T
ANR is short for Application Not Responding.

T
AIDL is short for Android Interface Definition Language

F
ANR is short for Application Not Restart

F
AIDL is short for Android Is Development Language

b
Which is not an action?.
a. A description of something that an Intent sender desires
b. The Intent Sender desires something.
c. The Intent Sender desires something or doing some tasks

c
What constant value is returned from onStartCommand() method or services that indicates the services being explicit started and stopped as needed?

Select one:
a. START_CONTINUATION_MASK
b. START_REDELIVER_INTENT
c. START_STICKY
d. START_FLAG_RETRY

b
What constant value is returned from onStartCommand() method or services that indicates the services that should only remain running while processing any commands sent to them?

Select one:
a. START_CONTINUATION_MASK
b. START_REDELIVER_INTENT
c. START_STICKY
d. START_FLAG_RETRY

b
___ class exposes methods to manage a SQLite database.

Select one:
a. SQLiteBuilder
b. SQLiteDatabase
c. SQLiteHelper
d. SQLiteQuery

a
Which method to use show image for Intent?

Select one:
a. setType("image/pictures/*");
b. setData("image/pictures/*");
c. setAction("image/pictures/*");
d. setImage("image/pictures/*");

b
To use an explicit intent, we need to know the ____ name of the activity/service.

Select one:
a. context
b. class
c. implicit
d. explicit
class

d
Activity results handled by the onActivityResult() method are differentiated from one another using which parameter?

Select one:
a. Result code
b. Data
c. Request code and result code
d. Request code

T
Announcements are broadcast receivers

b
What are the four essential states of an activity?

Select one:
a. Active, Paused, Closed, Destroyed
b. Active, Paused, Stopped, Destroyed
c. Active, Paused, Slept, Destroyed
d. Active, Slept, Stopped, Destroyed

d
What is a type of notification that is not supported in android?

Select one:
a. Dialog notification
b. Toast notification
c. Status bar notification
d. Permission notification

d
What is fundamental building blocks / components of Android ?

Select one:
a. Activities, Services, Broadcast Readers, Content Providers
b. Activities, Services, Broadcast Writers, Content Providers
c. Activities, Services, Broadcast Senders, Content Providers
d. Activities, Services, Broadcast Receivers, Content Providers

b
What are intent filters?

Select one:
a. Intents filter are a separate league of components that expose a specific sets of data to applications
b. Intents filter are used to register activity, services, broadcast receiver as being capable of performing an action on a particular kind of actions
c. All of these
d. Intents filter are programs that can run in the background for an indefinite period

T
Content Providers are a separate league of components that expose a specific sets of data to applications

b
What is Content Provider?

Select one:
a. Content Providers are a separate league of components that expose a specific sets of data to applications
b. All of these
c. Content Providers store and retrieve data thus making it accessible to all
d. Content Providers are the only way to share data across Android applications

c
How to get the form data in Sencha Touch?

Select one:
a. x-type.("control id").getValues();
b. x-type.getValues();
c. getFormInstance().getValues();
d. getFormInstance("control id").getValues();

d
Using PhoneGap, how can you avoid performance issues when working with LocaleStorage?

Select one:
a. It's not possible at all.
b. Using a custom JSON serializer.
c. Storing any application data.
d. Using a WebWorker to handle the data writing and reading operations.

c
This function should be implemented to safely initialize your application using the PhoneGap API after the app loads.?

Select one:
a. deviceReady()
b. onLoad()
c. onDeviceReady()
d. ready()

d
This object is used to determine the type of network accessible to the app end-user?

Select one:
a. network
b. net
c. PhoneGap cannot determine the type of connection used
d. connection

a
Working with event in Sencha Touch, which the following statement is false?

Select one:
a. Sencha Touch allows arbitrary definition of the parameters required in every one of the events exposed by the framework.
b. The event triggers the execution of the corresponding function, which takes a certain number of parameters.
c. To attach functions as event handlers, the only thing that is required is to specify a listeners configuration element to your user interface object.
d. Sencha Touch allows developers to centralize business logic and event handlers in controller classes, inheriting from Ext.app.Controller.

b
Which of the following elements is no longer supported in HTML5?

Select one:
a. <q>
b. <font>
c. <ins>
d. <menu>

d
Graphics defined by SVG is in which format?

Select one:
a. CSS
b. HTML
c. JSON
d. XML

a
Which doctype is correct for HTML5?

Select one:
a. <!DOCTYPE html>
b. <!DOCTYPE HTML5>
c. <!DOCTYPE HTML5 PUBLIC "-//W3C//DTD HTML 5.0//EN" "http://www.w3.org/TR/html5/strict.dtd">
d. <!DOCTYPE HTML PUBLIC "-//W3C//DTD HTML 5.0//EN" "http://www.w3.org/TR/html5/strict.dtd">

d
What is the difference between the Camera and Capture APIs?

Select one:
a. The Camera API is accepted.
b. The Camera API is deprecated.
c. The Capture API works only with PhoneGap 3.x.
d. The Camera API can capture one media per time while the Capture can capture more than one.

d
Using Sencha Touch, which the following animation that you can't given the choice of?

Select one:
a. slide
b. fade
c. cube
d. fly
e.flip
f.pop
j.wipe

d
What is base of all Sencha Touch component?

Select one:
a. Ext.SenchaBase
b. Ext.SenchaTouchBase
c. Ext.Base
d. Ext.Component

c
Using PhoneGap, how can you detect a change in the position of the device?

Select one:
a. Using a custom plugin.
b. It's not possible at all.
c. Using the PhoneGap API.
d. Using a special-device plugin.

c
There are size limitations in PhoneGap when creating a database?

Select one:
a. No, unlimited!
b. Yes, 5 MB.
c. It depends on the target platform.
d. Yes, 8 MB.

c
In Sencha Touch, profile is ...

Select one:
a. Class is implemented through the Ext.doc.Profile.
b. Document will describe the data we are using.
c. Object that contains display information for different types of devices.
d. Sencha Touch documentation.

d
Android system uses intents to

a) broadcast system intents
b) broadcast custom intents
c) To invoke other applications from your application.
d) All of the above.

b
The plus(+) means in statement android:id="@+id/my_id"?

a) Identify it as an id resource
b) Create new id and add to resources
c) XML parser should parse and expand id string
d) Both a & b.

c
When you want system to run the service indefinitely, by restarting it when get killed, use

a) START_NOT_STICKY
b) START_REDELIVER_INTENT
c) START_STICKY
d) START_SERVICE_INDEFINITELY

d
Android supports which features

a. Multitasking
b. Bluetooth
c. Video calling
d. All of the above

b
Is android available in ROM?

a. Yes
b. No

c
Android doesn't support which format

a. MP4
b. MPEG
c. AVI
d. MIDI 5

a
What is mean by localization?

a. Representing the products in different languages
b. Representing the products in different region
c. Representing the people in different languages
d. Representing the products in different languages with different attribute

b
Which are the states in service life cycle?
1)starting
2)paused
3)running
4) destroyed
5)wait
6)yield

a. 1,2,3,5
b. 1,3,4
c. 2,5,6
d. None of these

c
Which of the following Dialog boxes are supported by Android?
1)AlertDialog
2)ProgressDialog
3)DatePickerDialog
4)TimePickerDialog

a. 1 and 2
b. 3 and 4
c. All of the above
d. None of these

b
What do you mean AIDL?

a. Android interface data language
b. Android interface definition language
c. Application interface data language
d. Application interface definition language

c
Which of the following file explains what the application consists of?

a. Strings XML
b. R file
c. Manifest
d. Layout file

c
Which of the following exception(s) is/are supported by android?
1) InflateException
2)Surface.OutOfResourceException
3)SurfaceHolder.BadSurfaceTypeException
4)WindowManager.BadTokenException

a. 1 and 2
b. 3 and 4
c. All of above
d. None of these

c
Typically MIME type will be

a. Html
b. Text
c. Text/html
d. Doc

c
ExpandableListView is used for

a. Simplified tree representation
b. Tree generation
c. Tree creation
d. Tree deletion

a
Which of the following(s) is/are the part of android native library?

1) webkit
2)opeGL
3)SQLite
4)openUX
5)Dalvik

a. 1,2,3
b. 3,4,5
c. All of above
d. None of these

c
The......application is an email monitoring application

a. Mail
b. Buzz
c. Mailbuzz
d. Mailbox

c
Which of the following(s) is/are component of APK file?

a. Resources
b. Delvik Executable
c. Both a and b
d. None of above

C
What is APK?

a. Application package kit
b. Application package file
c. Android package kit
d. Android package file

b
What do you mean by BLOB?

a. Bytes less object
b. Binary large objects
c. Binary low object
d. Bit low object

b
The custom typeface of android is called.......

a. Droid
b. Norad
c. Includes
d. Tapas

b
The menu can be placed into alphabetic shortcut mode by calling......

a. Setup()
b. setQwertyMode()
c. setContent()
d. setIndicator()

a
If fragment and activity is running and activity is destroyed, what is the effect on the fragment?

a. Fragment is destroyed
b. Fragment runs as it is
c. Fragment goes in idle state
d. None of these

c
A single screen, the user sees on the device at one time, is known as.........

a. Service
b. Gui
c. Activity
d. Application

a
Which of the following services are provided by android operation system?
1) lacation
2)sensor reading
3) wifi
4)cloud computing

a. 1,2,3 and more
b. 2,3,4 and more
c. All of above and more
d. None of these

a
Is the bluetooth serial port profile supported by android?

a. Yes
b. No

a
Which of the following type(s) of notification is/are available in android?
1) Toast notification
2) status bar notification
3) Dialog notification
4) alert notification

a. 1,2,3
b. 2,3,4
c. 1,3,4
d. None of these

b